<?xml version='1.0' encoding='UTF-8'?>
<routes xmlns:xsi="http://www.w3.org/2001/XMLSchema-instance" xsi:noNamespaceSchemaLocation="http://sumo.dlr.de/xsd/routes_file.xsd">
    
    <vTypeDistribution id="motorcycleDist"><vType vClass="motorcycle" length="2.2" minGap="1.5" accel="4.0" decel="6.0" tau="1.0" sigma="0.5" maxSpeed="36.11" speedFactor="1.0" speedDev="0.15" id="motorcycle_motorcycle" probability="0.95" /><vType vClass="motorcycle" length="2.2" minGap="1.0" accel="4.0" decel="6.0" tau="0.65" sigma="0.5" maxSpeed="36.11" speedFactor="1.0" speedDev="0.15" jmIgnoreFoeProb="0.005" id="motorcycle_dangerous" probability="0.05" /></vTypeDistribution><trip id="motorcycle1" type="motorcycleDist" depart="1.47" departLane="best" color="green" from="9950456#1" to="-10003465#2" />
    <trip id="motorcycle2" type="motorcycleDist" depart="2.94" departLane="best" color="green" from="9949673#1" to="91242499#3" />
    <trip id="motorcycle9" type="motorcycleDist" depart="13.25" departLane="best" color="green" from="9973979#5" to="9970154#5" />
    <trip id="motorcycle10" type="motorcycleDist" depart="14.72" departLane="best" color="green" from="-9979448" to="560945689#2" />
    <trip id="motorcycle11" type="motorcycleDist" depart="16.20" departLane="best" color="blue" from="-9982752" to="-10013070#0" />
    <trip id="motorcycle12" type="motorcycleDist" depart="17.67" departLane="best" color="blue" from="10013070#0" to="1078999248#0" />
    <trip id="motorcycle13" type="motorcycleDist" depart="19.14" departLane="best" color="green" from="-9988290#2" to="419048321" />
    <trip id="motorcycle14" type="motorcycleDist" depart="20.61" departLane="best" color="green" from="-9964795" to="-9965214#4" />
    <trip id="motorcycle15" type="motorcycleDist" depart="22.09" departLane="best" color="blue" from="-9966098#0" to="590687012#1" />
    <trip id="motorcycle23" type="motorcycleDist" depart="33.87" departLane="best" color="green" from="9963600#4" to="-24263173#6" />
    <trip id="motorcycle24" type="motorcycleDist" depart="35.34" departLane="best" color="blue" from="9966098#4" to="9992468#2" />
    <trip id="motorcycle25" type="motorcycleDist" depart="36.81" departLane="best" color="green" from="9951299" to="9971904#1" />
    <trip id="motorcycle26" type="motorcycleDist" depart="38.28" departLane="best" color="green" from="10003764#1" to="299398059#4" />
    <trip id="motorcycle29" type="motorcycleDist" depart="42.70" departLane="best" color="green" from="-569025213" to="10013562" />
    <trip id="motorcycle31" type="motorcycleDist" depart="45.65" departLane="best" color="green" from="-459411782#1" to="10014065#4" />
    <trip id="motorcycle35" type="motorcycleDist" depart="51.54" departLane="best" color="blue" from="10012167#4" to="10006244#0" />
    <trip id="motorcycle37" type="motorcycleDist" depart="54.48" departLane="best" color="green" from="666036914#4" to="1029997531" />
    <trip id="motorcycle38" type="motorcycleDist" depart="55.95" departLane="best" color="blue" from="-9972168#0" to="9954084" />
    <trip id="motorcycle39" type="motorcycleDist" depart="57.42" departLane="best" color="green" from="-9972023#3" to="9966015#4" />
    <trip id="motorcycle42" type="motorcycleDist" depart="61.84" departLane="best" color="green" from="1356365078#3" to="1053586553#0" />
    <trip id="motorcycle44" type="motorcycleDist" depart="64.79" departLane="best" color="green" from="-9973979#3" to="-441530114" />
    <trip id="motorcycle45" type="motorcycleDist" depart="66.26" departLane="best" color="green" from="-9949272#1" to="-10005379#0" />
    <trip id="motorcycle49" type="motorcycleDist" depart="72.15" departLane="best" color="green" from="-9965214#1" to="904973558#1" />
    <trip id="motorcycle52" type="motorcycleDist" depart="76.57" departLane="best" color="green" from="-267750150#1" to="9988914#1" />
    <trip id="motorcycle53" type="motorcycleDist" depart="78.04" departLane="best" color="green" from="9995211#0" to="569221949" />
    <trip id="motorcycle54" type="motorcycleDist" depart="79.51" departLane="best" color="blue" from="1078999252#0" to="10013070#0" />
    <trip id="motorcycle57" type="motorcycleDist" depart="83.93" departLane="best" color="green" from="9951364#0" to="10010035#2" />
    <trip id="motorcycle59" type="motorcycleDist" depart="86.87" departLane="best" color="green" from="-9988290#3" to="765143434" />
    <trip id="motorcycle60" type="motorcycleDist" depart="88.35" departLane="best" color="green" from="9969154#2" to="622704793#0" />
    <trip id="motorcycle61" type="motorcycleDist" depart="89.82" departLane="best" color="green" from="-90990707#2" to="1144939508#2" />
    <trip id="motorcycle62" type="motorcycleDist" depart="91.29" departLane="best" color="green" from="-9975641" to="9951364#1" />
    <trip id="motorcycle63" type="motorcycleDist" depart="92.76" departLane="best" color="green" from="560945689#2" to="9964090#0" />
    <trip id="motorcycle65" type="motorcycleDist" depart="95.71" departLane="best" color="green" from="-9963600#4" to="-10013877#6" />
    <trip id="motorcycle68" type="motorcycleDist" depart="100.13" departLane="best" color="green" from="-10006168#1" to="9949105#2" />
    <trip id="motorcycle69" type="motorcycleDist" depart="101.60" departLane="best" color="green" from="441530149#1" to="1267229117" />
    <trip id="motorcycle70" type="motorcycleDist" depart="103.07" departLane="best" color="blue" from="-9992468#4" to="573200826#0" />
    <trip id="motorcycle71" type="motorcycleDist" depart="104.54" departLane="best" color="green" from="-459415869#2" to="9964795" />
    <trip id="motorcycle72" type="motorcycleDist" depart="106.01" departLane="best" color="blue" from="1290771604#4" to="9954083#6" />
    <trip id="motorcycle73" type="motorcycleDist" depart="107.49" departLane="best" color="blue" from="9954083#3" to="444604787#0" />
    <trip id="motorcycle74" type="motorcycleDist" depart="108.96" departLane="best" color="green" from="459411782#1" to="-10008484" />
    <trip id="motorcycle75" type="motorcycleDist" depart="110.43" departLane="best" color="green" from="-9988914#0" to="-10003465#0" />
    <trip id="motorcycle76" type="motorcycleDist" depart="111.90" departLane="best" color="green" from="441530149#1" to="-10009995#0" />
    <trip id="motorcycle79" type="motorcycleDist" depart="116.32" departLane="best" color="green" from="-91184537#1" to="-9959249#5" />
    <trip id="motorcycle81" type="motorcycleDist" depart="119.27" departLane="best" color="green" from="10014065#1" to="9981623#3" />
    <trip id="motorcycle83" type="motorcycleDist" depart="122.21" departLane="best" color="green" from="-9949347#3" to="-9964210#3" />
    <trip id="motorcycle88" type="motorcycleDist" depart="129.57" departLane="best" color="green" from="9988290#2" to="9957284#1" />
    <trip id="motorcycle89" type="motorcycleDist" depart="131.05" departLane="best" color="green" from="825955851" to="9949272#1" />
    <trip id="motorcycle91" type="motorcycleDist" depart="133.99" departLane="best" departSpeed="max" color="blue" from="-9980947" to="-10012167#3" />
    <trip id="motorcycle94" type="motorcycleDist" depart="138.41" departLane="best" color="blue" from="9992468#0" to="9985289#3" />
    <trip id="motorcycle96" type="motorcycleDist" depart="141.35" departLane="best" color="green" from="601383429" to="-569221946#0" />
    <trip id="motorcycle97" type="motorcycleDist" depart="142.83" departLane="best" color="blue" from="1078999248#0" to="9972770#2" />
    <trip id="motorcycle98" type="motorcycleDist" depart="144.30" departLane="best" color="green" from="-560945689#2" to="-9962281#1" />
    <trip id="motorcycle99" type="motorcycleDist" depart="145.77" departLane="best" color="green" from="9991004#1" to="563019285#0" />
    <trip id="motorcycle101" type="motorcycleDist" depart="148.72" departLane="best" color="green" from="459411779" to="299398059#5" />
    <trip id="motorcycle102" type="motorcycleDist" depart="150.19" departLane="best" color="green" from="-1068147599#1" to="-10013373#3" />
    <trip id="motorcycle104" type="motorcycleDist" depart="153.13" departLane="best" color="green" from="9988290#3" to="-9964210#7" />
    <trip id="motorcycle105" type="motorcycleDist" depart="154.61" departLane="best" color="green" from="1113090714#1" to="-1068147596#1" />
    <trip id="motorcycle106" type="motorcycleDist" depart="156.08" departLane="best" color="green" from="-9987955#2" to="9962281#4" />
    <trip id="motorcycle109" type="motorcycleDist" depart="160.49" departLane="best" color="green" from="-666036914#1" to="-9963588#2" />
    <trip id="motorcycle110" type="motorcycleDist" depart="161.97" departLane="best" color="green" from="9981623#1" to="9950456#1" />
    <trip id="motorcycle113" type="motorcycleDist" depart="166.38" departLane="best" color="blue" from="-10012744#1" to="10013070#0" />
    <trip id="motorcycle115" type="motorcycleDist" depart="169.33" departLane="best" color="green" from="9970154#6" to="1057114063" />
    <trip id="motorcycle116" type="motorcycleDist" depart="170.80" departLane="best" color="green" from="9978624#7" to="9971088#1" />
    <trip id="motorcycle119" type="motorcycleDist" depart="175.22" departLane="best" color="green" from="-9951299" to="-91184537#3" />
    <trip id="motorcycle120" type="motorcycleDist" depart="176.69" departLane="best" color="green" from="599937504" to="-10013877#2" />
    <trip id="motorcycle122" type="motorcycleDist" depart="179.64" departLane="best" color="green" from="-10013877#5" to="1267229117" />
    <trip id="motorcycle124" type="motorcycleDist" depart="182.58" departLane="best" color="blue" from="-9963701" to="-10002975#0" />
    <trip id="motorcycle126" type="motorcycleDist" depart="185.53" departLane="best" from="27452590#2" to="368617283-AddedOnRampEdge" />
    <trip id="motorcycle127" type="motorcycleDist" depart="187.00" departLane="best" color="green" from="10010518#4" to="-91242499#1" />
    <trip id="motorcycle128" type="motorcycleDist" depart="188.47" departLane="best" color="green" from="904973558#1" to="-9955793#5" />
    <trip id="motorcycle130" type="motorcycleDist" depart="191.42" departLane="best" color="green" from="-9957284#1" to="9978624#7" />
    <trip id="motorcycle132" type="motorcycleDist" depart="194.36" departLane="best" color="green" from="459411779" to="1067080859#1" />
    <trip id="motorcycle133" type="motorcycleDist" depart="195.83" departLane="best" color="green" from="-9965214#1" to="904973559" />
    <trip id="motorcycle134" type="motorcycleDist" depart="197.31" departLane="best" color="green" from="-10003764#2" to="904973557#6" />
    <trip id="motorcycle135" type="motorcycleDist" depart="198.78" departLane="best" color="blue" from="91362498#1" to="-10009188#0" />
    <trip id="motorcycle140" type="motorcycleDist" depart="206.14" departLane="best" color="green" from="9987955#0" to="9991004#3" />
    <trip id="motorcycle141" type="motorcycleDist" depart="207.61" departLane="best" color="green" from="601383429" to="299398059#2" />
    <trip id="motorcycle144" type="motorcycleDist" depart="212.03" departLane="best" color="blue" from="9954083#5" to="9951015" />
    <trip id="motorcycle145" type="motorcycleDist" depart="213.50" departLane="best" color="green" from="441530149#1" to="-9970158#1" />
    <trip id="motorcycle146" type="motorcycleDist" depart="214.97" departLane="best" color="green" from="10010518#3" to="9988914#1" />
    <trip id="motorcycle149" type="motorcycleDist" depart="219.39" departLane="best" color="green" from="-1356365078#0" to="-713155593#1" />
    <trip id="motorcycle151" type="motorcycleDist" depart="222.34" departLane="best" color="green" from="-666036914#0" to="10009995#0" />
    <trip id="motorcycle155" type="motorcycleDist" depart="228.23" departLane="best" color="green" from="9995692#1" to="-441530201#0" />
    <trip id="motorcycle156" type="motorcycleDist" depart="229.70" departLane="best" color="green" from="-9959249#0" to="-9963588#0" />
    <trip id="motorcycle157" type="motorcycleDist" depart="231.17" departLane="best" color="green" from="9987504#4" to="945359698#0" />
    <trip id="motorcycle158" type="motorcycleDist" depart="232.64" departLane="best" color="green" from="9970158#0" to="-267750150#1" />
    <trip id="motorcycle163" type="motorcycleDist" depart="240.01" departLane="best" color="blue" from="-1056569714#2" to="10009188#0" />
    <trip id="motorcycle165" type="motorcycleDist" depart="242.95" departLane="best" color="green" from="-1356365478#1" to="-441530114" />
    <trip id="motorcycle166" type="motorcycleDist" depart="244.42" departLane="best" color="blue" from="10003544#0" to="9989274" />
    <trip id="motorcycle167" type="motorcycleDist" depart="245.90" departLane="best" departSpeed="max" color="green" from="-9973034#2" to="-1356363910" />
    <trip id="motorcycle168" type="motorcycleDist" depart="247.37" departLane="best" departSpeed="max" color="green" from="9966015#0" to="24263173#5" />
    <trip id="motorcycle170" type="motorcycleDist" depart="250.31" departLane="best" color="green" from="572299722" to="-10014065#3" />
    <trip id="motorcycle172" type="motorcycleDist" depart="253.26" departLane="best" color="blue" from="91362489#4" to="-10008771#4" />
    <trip id="motorcycle173" type="motorcycleDist" depart="254.73" departLane="best" departSpeed="max" color="green" from="-441530225#1" to="90990604#2" />
    <trip id="motorcycle176" type="motorcycleDist" depart="259.15" departLane="best" color="green" from="1053555042#4" to="-10013373#3" />
    <trip id="motorcycle177" type="motorcycleDist" depart="260.62" departLane="best" color="blue" from="9972168#2" to="1078999252#0" />
    <trip id="motorcycle179" type="motorcycleDist" depart="263.57" departLane="best" color="green" from="91184537#3" to="-9987504#5" />
    <trip id="motorcycle180" type="motorcycleDist" depart="265.04" departLane="best" color="blue" from="-9993265#0" to="468077399" />
    <trip id="motorcycle181" type="motorcycleDist" depart="266.51" departLane="best" color="green" from="569221946#2" to="-9973034#0" />
    <trip id="motorcycle182" type="motorcycleDist" depart="267.98" departLane="best" color="green" from="9995692#4" to="-10009995#1" />
    <trip id="motorcycle183" type="motorcycleDist" depart="269.45" departLane="best" color="green" from="91242499#3" to="-9971904#0" />
    <trip id="motorcycle185" type="motorcycleDist" depart="272.40" departLane="best" color="green" from="1070241563#0" to="49858194" />
    <trip id="motorcycle187" type="motorcycleDist" depart="275.34" departLane="best" color="green" from="9986253#3" to="10008206#1" />
    <trip id="motorcycle188" type="motorcycleDist" depart="276.82" departLane="best" color="green" from="-441530199" to="-9983617#14" />
    <trip id="motorcycle191" type="motorcycleDist" depart="281.23" departLane="best" color="green" from="-1113090714#0" to="9965043#0" />
    <trip id="motorcycle193" type="motorcycleDist" depart="284.18" departLane="best" color="blue" from="-9966096#1" to="-10012167#9" />
    <trip id="motorcycle196" type="motorcycleDist" depart="288.60" departLane="best" color="green" from="-9964210#5" to="-9973979#3" />
    <trip id="motorcycle202" type="motorcycleDist" depart="297.43" departLane="best" color="blue" from="9954270#1" to="1077664018" />
    <trip id="motorcycle203" type="motorcycleDist" depart="298.90" departLane="best" color="green" from="459411782#2" to="10014059#0" />
    <trip id="motorcycle205" type="motorcycleDist" depart="301.85" departLane="best" color="green" from="1065420133#0" to="573158980#1" />
    <trip id="motorcycle206" type="motorcycleDist" depart="303.32" departLane="best" color="green" from="-9971088#0" to="90990707#2" />
    <trip id="motorcycle208" type="motorcycleDist" depart="306.27" departLane="best" color="blue" from="9972770#2" to="9954083#0" />
    <trip id="motorcycle210" type="motorcycleDist" depart="309.21" departLane="best" color="blue" from="-9972770#2" to="91362498#1" />
    <trip id="motorcycle212" type="motorcycleDist" depart="312.16" departLane="best" color="green" from="-10011537#4" to="-9960035#1" />
    <trip id="motorcycle214" type="motorcycleDist" depart="315.10" departLane="best" color="green" from="599937558#0" to="-9995692#5" />
    <trip id="motorcycle215" type="motorcycleDist" depart="316.57" departLane="best" color="green" from="-569221946#4" to="10009995#0" />
    <trip id="motorcycle216" type="motorcycleDist" depart="318.04" departLane="best" color="blue" from="10002975#0" to="1207104174" />
    <trip id="motorcycle217" type="motorcycleDist" depart="319.52" departLane="best" color="green" from="568139964" to="-9963588#3" />
    <trip id="motorcycle218" type="motorcycleDist" depart="320.99" departLane="best" color="green" from="9981460#0" to="-9991609" />
    <trip id="motorcycle220" type="motorcycleDist" depart="323.93" departLane="best" color="green" from="1067080859#1" to="-91242499#1" />
    <trip id="motorcycle225" type="motorcycleDist" depart="331.30" departLane="best" color="green" from="-9971309#0" to="-9986253#0" />
    <trip id="motorcycle226" type="motorcycleDist" depart="332.77" departLane="best" color="green" from="569221946#0" to="10009997#0" />
    <trip id="motorcycle227" type="motorcycleDist" depart="334.24" departLane="best" color="green" from="10013877#7" to="-563019285#0" />
    <trip id="motorcycle228" type="motorcycleDist" depart="335.71" departLane="best" color="green" from="1053589889#0" to="90990530#0" />
    <trip id="motorcycle231" type="motorcycleDist" depart="340.13" departLane="best" color="green" from="1042857539#0" to="569221946#4" />
    <trip id="motorcycle232" type="motorcycleDist" depart="341.60" departLane="best" color="blue" from="-10012167#5" to="-91362528#2" />
    <trip id="motorcycle233" type="motorcycleDist" depart="343.08" departLane="best" from="1029978833#0" to="934271895" />
    <trip id="motorcycle236" type="motorcycleDist" depart="347.49" departLane="best" color="green" from="9987606" to="9991432#2" />
    <trip id="motorcycle237" type="motorcycleDist" depart="348.97" departLane="best" color="green" from="91242499#4" to="-9983607#1" />
    <trip id="motorcycle244" type="motorcycleDist" depart="359.27" departLane="best" color="blue" from="-9987204#0" to="10003544#0" />
    <trip id="motorcycle247" type="motorcycleDist" depart="363.69" departLane="best" color="green" from="569221946#3" to="9978624#4" />
    <trip id="motorcycle250" type="motorcycleDist" depart="368.11" departLane="best" color="green" from="10010013" to="-9981623#3" />
    <trip id="motorcycle252" type="motorcycleDist" depart="371.05" departLane="best" color="green" from="9988914#1" to="91242628#0" />
    <trip id="motorcycle254" type="motorcycleDist" depart="374.00" departLane="best" color="green" from="-10014035" to="10006168#1" />
    <trip id="motorcycle255" type="motorcycleDist" depart="375.47" departLane="best" color="blue" from="-10012167#7" to="9993627#2" />
    <trip id="motorcycle257" type="motorcycleDist" depart="378.41" departLane="best" color="green" from="9959249#6" to="-10008210#3" />
    <trip id="motorcycle258" type="motorcycleDist" depart="379.89" departLane="best" color="green" from="-91242628#0" to="49858078#2" />
    <trip id="motorcycle259" type="motorcycleDist" depart="381.36" departLane="best" color="blue" from="-10013070#0" to="-9972770#3" />
    <trip id="motorcycle260" type="motorcycleDist" depart="382.83" departLane="best" color="blue" from="9954084" to="-9954078#0" />
    <trip id="motorcycle263" type="motorcycleDist" depart="387.25" departLane="best" color="green" from="9978624#6" to="1029997531" />
    <trip id="motorcycle265" type="motorcycleDist" depart="390.19" departLane="best" color="green" from="9949105#1" to="9987504#5" />
    <trip id="motorcycle267" type="motorcycleDist" depart="393.14" departLane="best" color="green" from="-10003764#4" to="9963588#1" />
    <trip id="motorcycle268" type="motorcycleDist" depart="394.61" departLane="best" color="green" from="90990530#0" to="9959249#6" />
    <trip id="motorcycle269" type="motorcycleDist" depart="396.08" departLane="best" color="green" from="569025214" to="573158982#0" />
    <trip id="motorcycle270" type="motorcycleDist" depart="397.56" departLane="best" color="green" from="1053555042#4" to="9995211#1" />
    <trip id="motorcycle271" type="motorcycleDist" depart="399.03" departLane="best" departSpeed="max" color="green" from="-9963600#6" to="299398059#5" />
    <trip id="motorcycle273" type="motorcycleDist" depart="401.97" departLane="best" color="blue" from="-10004216#1" to="-9963703#1" />
    <trip id="motorcycle274" type="motorcycleDist" depart="403.45" departLane="best" color="green" from="1356365078#1" to="-9990586#1" />
    <trip id="motorcycle277" type="motorcycleDist" depart="407.86" departLane="best" color="green" from="-573158980#2" to="299398059#2" />
    <trip id="motorcycle278" type="motorcycleDist" depart="409.34" departLane="best" color="blue" from="-91184619#0" to="9954083#1" />
    <trip id="motorcycle283" type="motorcycleDist" depart="416.70" departLane="best" departSpeed="max" color="green" from="-441530225#1" to="-10013877#8" />
    <trip id="motorcycle285" type="motorcycleDist" depart="419.64" departLane="best" color="blue" from="-9983114" to="-9971466#0" />
    <trip id="motorcycle288" type="motorcycleDist" depart="424.06" departLane="best" color="green" from="-9970743" to="-9983643#1" />
    <trip id="motorcycle290" type="motorcycleDist" depart="427.00" departLane="best" color="blue" from="9973938#0" to="9954083#7" />
    <trip id="motorcycle292" type="motorcycleDist" depart="429.95" departLane="best" color="green" from="-9972023#6" to="91184537#0" />
    <trip id="motorcycle293" type="motorcycleDist" depart="431.42" departLane="best" color="blue" from="91362467#0" to="-9971466#5" />
    <trip id="motorcycle295" type="motorcycleDist" depart="434.37" departLane="best" color="green" from="1042857539#0" to="1068147606" />
    <trip id="motorcycle296" type="motorcycleDist" depart="435.84" departLane="best" color="blue" from="9982752" to="1078999252#0" />
    <trip id="motorcycle297" type="motorcycleDist" depart="437.31" departLane="best" departSpeed="max" color="blue" from="9998517#0" to="468077374" />
    <trip id="motorcycle298" type="motorcycleDist" depart="438.78" departLane="best" color="green" from="-10013562" to="563019285#5" />
    <trip id="motorcycle299" type="motorcycleDist" depart="440.26" departLane="best" color="green" from="601383426#2" to="9949272#1" />
    <trip id="motorcycle301" type="motorcycleDist" depart="443.20" departLane="best" color="blue" from="590687012#1" to="10002975#5" />
    <trip id="motorcycle307" type="motorcycleDist" depart="452.04" departLane="best" color="green" from="9936848#1" to="-10013373#5" />
    <trip id="motorcycle308" type="motorcycleDist" depart="453.51" departLane="best" color="green" from="10010518#3" to="10006168#0" />
    <trip id="motorcycle310" type="motorcycleDist" depart="456.45" departLane="best" color="green" from="9964794#2" to="-10008210#1" />
    <trip id="motorcycle311" type="motorcycleDist" depart="457.93" departLane="best" color="blue" from="10003208" to="-9983816#1" />
    <trip id="motorcycle312" type="motorcycleDist" depart="459.40" departLane="best" color="blue" from="-593067037#1" to="-1290771604#6" />
    <trip id="motorcycle313" type="motorcycleDist" depart="460.87" departLane="best" color="green" from="10008210#0" to="-1356363911#3" />
    <trip id="motorcycle318" type="motorcycleDist" depart="468.23" departLane="best" color="blue" from="492413557#0" to="-9968489#0" />
    <trip id="motorcycle319" type="motorcycleDist" depart="469.71" departLane="best" color="blue" from="10002975#1" to="9992468#3" />
    <trip id="motorcycle321" type="motorcycleDist" depart="472.65" departLane="best" color="green" from="1144939509#0" to="-9978624#10" />
    <trip id="motorcycle322" type="motorcycleDist" depart="474.12" departLane="best" color="green" from="-9964210#8" to="-9970156#0" />
    <trip id="motorcycle323" type="motorcycleDist" depart="475.59" departLane="best" color="green" from="-9965043#1" to="-9968925#1" />
    <trip id="motorcycle328" type="motorcycleDist" depart="482.96" departLane="best" color="green" from="1029997532" to="9966126#1" />
    <trip id="motorcycle329" type="motorcycleDist" depart="484.43" departLane="best" from="1029978833#0" to="368617283-AddedOnRampEdge" />
    <trip id="motorcycle331" type="motorcycleDist" depart="487.37" departLane="best" color="green" from="299398059#4" to="-9970743" />
    <trip id="motorcycle334" type="motorcycleDist" depart="491.79" departLane="best" color="green" from="1053555042#4" to="-9953512" />
    <trip id="motorcycle338" type="motorcycleDist" depart="497.68" departLane="best" color="green" from="904973559" to="-9986253#3" />
    <trip id="motorcycle342" type="motorcycleDist" depart="503.57" departLane="best" color="green" from="9978624#1" to="91242537" />
    <trip id="motorcycle343" type="motorcycleDist" depart="505.04" departLane="best" color="green" from="569221946#1" to="-666036914#3" />
    <trip id="motorcycle344" type="motorcycleDist" depart="506.52" departLane="best" color="blue" from="-10012167#6" to="1078999252#0" />
    <trip id="motorcycle346" type="motorcycleDist" depart="509.46" departLane="best" color="blue" from="10012167#1" to="-9953135#0" />
    <trip id="motorcycle349" type="motorcycleDist" depart="513.88" departLane="best" color="green" from="91242527#0" to="1029997531" />
    <trip id="motorcycle350" type="motorcycleDist" depart="515.35" departLane="best" color="green" from="-9966015#3" to="573158980#2" />
    <trip id="motorcycle351" type="motorcycleDist" depart="516.82" departLane="best" color="green" from="-9936848#1" to="9987504#2" />
    <trip id="motorcycle353" type="motorcycleDist" depart="519.77" departLane="best" color="green" from="10004890#1" to="358372600" />
    <trip id="motorcycle354" type="motorcycleDist" depart="521.24" departLane="best" color="blue" from="9954270#0" to="10003208" />
    <trip id="motorcycle355" type="motorcycleDist" depart="522.71" departLane="best" color="green" from="9995692#2" to="-1356363911#0" />
    <trip id="motorcycle356" type="motorcycleDist" depart="524.19" departLane="best" color="blue" from="9963701" to="-9969939#1" />
    <trip id="motorcycle358" type="motorcycleDist" depart="527.13" departLane="best" color="green" from="1067080859#1" to="1053555042#2" />
    <trip id="motorcycle360" type="motorcycleDist" depart="530.07" departLane="best" color="green" from="-9963588#3" to="-9978685" />
    <trip id="motorcycle361" type="motorcycleDist" depart="531.55" departLane="best" color="blue" from="-9954083#1" to="-10008313#1" />
    <trip id="motorcycle363" type="motorcycleDist" depart="534.49" departLane="best" departSpeed="max" color="green" from="-441530225#1" to="-1068147594#0" />
    <trip id="motorcycle367" type="motorcycleDist" depart="540.38" departLane="best" color="blue" from="10003544#0" to="-9955862#0" />
    <trip id="motorcycle368" type="motorcycleDist" depart="541.85" departLane="best" color="green" from="91184537#3" to="-91184537#1" />
    <trip id="motorcycle369" type="motorcycleDist" depart="543.33" departLane="best" color="blue" from="9976448" to="-10012167#0" />
    <trip id="motorcycle371" type="motorcycleDist" depart="546.27" departLane="best" from="45607963#1" to="-10010518#3" />
    <trip id="motorcycle373" type="motorcycleDist" depart="549.22" departLane="best" color="green" from="9978624#3" to="-9951301" />
    <trip id="motorcycle374" type="motorcycleDist" depart="550.69" departLane="best" color="green" from="-9963600#0" to="1053555044" />
    <trip id="motorcycle375" type="motorcycleDist" depart="552.16" departLane="best" color="blue" from="-9955862#0" to="-593067037#0" />
    <trip id="motorcycle376" type="motorcycleDist" depart="553.63" departLane="best" color="green" from="599937503#2" to="-10013373#2" />
    <trip id="motorcycle379" type="motorcycleDist" depart="558.05" departLane="best" color="green" from="-9968925#1" to="-9991004#1" />
    <trip id="motorcycle380" type="motorcycleDist" depart="559.52" departLane="best" color="blue" from="1290771604#2" to="-10002975#6" />
    <trip id="motorcycle384" type="motorcycleDist" depart="565.41" departLane="best" color="green" from="568139964" to="9970743" />
    <trip id="motorcycle385" type="motorcycleDist" depart="566.89" departLane="best" color="green" from="459415869#1" to="-9981632" />
    <trip id="motorcycle388" type="motorcycleDist" depart="571.30" departLane="best" color="green" from="-9986253#2" to="904973557#2" />
    <trip id="motorcycle390" type="motorcycleDist" depart="574.25" departLane="best" color="green" from="-9973037#3" to="-10008211" />
    <trip id="motorcycle393" type="motorcycleDist" depart="578.67" departLane="best" color="blue" from="-9976526#2" to="9954083#1" />
    <trip id="motorcycle394" type="motorcycleDist" depart="580.14" departLane="best" color="green" from="-9959249#3" to="1053589889#0" />
    <trip id="motorcycle395" type="motorcycleDist" depart="581.61" departLane="best" color="green" from="9959549#1" to="1053586553#0" />
    <trip id="motorcycle403" type="motorcycleDist" depart="593.39" departLane="best" color="green" from="-9989326#2" to="90990604#0" />
    <trip id="motorcycle404" type="motorcycleDist" depart="594.86" departLane="best" color="green" from="91175826#0" to="-1144939509#1" />
    <trip id="motorcycle405" type="motorcycleDist" depart="596.33" departLane="best" color="blue" from="91362498#1" to="91362489#2" />
    <trip id="motorcycle406" type="motorcycleDist" depart="597.81" departLane="best" color="green" from="-10013373#4" to="-563019285#1" />
    <trip id="motorcycle407" type="motorcycleDist" depart="599.28" departLane="best" color="blue" from="91362546#5" to="9980945#3" />