<?xml version='1.0' encoding='UTF-8'?>
<routes xmlns:xsi="http://www.w3.org/2001/XMLSchema-instance" xsi:noNamespaceSchemaLocation="http://sumo.dlr.de/xsd/routes_file.xsd">
    
    <vType id="ego_passenger" vClass="passenger" length="5.0" minGap="2.5" accel="2.6" decel="4.5" tau="1.0" sigma="0.5" maxSpeed="36.11" speedFactor="1.0" speedDev="0.1" /><vTypeDistribution id="passengerDist"><vType vClass="passenger" length="5.0" minGap="2.5" accel="2.6" decel="4.5" tau="1.0" sigma="0.5" maxSpeed="36.11" speedFactor="1.0" speedDev="0.1" id="veh_passenger" probability="0.97" /><vType vClass="passenger" length="5.0" minGap="2.0" accel="2.6" decel="4.5" tau="0.7" sigma="0.5" maxSpeed="36.11" speedFactor="1.0" speedDev="0.1" jmIgnoreFoeProb="0.003" id="veh_dangerous" probability="0.03" /></vTypeDistribution><trip id="veh2" type="passengerDist" depart="0.91" departLane="best" color="green" from="713155593#3" to="572299727" />
    <trip id="veh18" type="passengerDist" depart="8.15" departLane="best" color="green" from="91175826#0" to="441530199" />
    <trip id="veh20" type="passengerDist" depart="9.06" departLane="best" color="green" from="573158982#0" to="-1052668219#2" />
    <trip id="veh27" type="passengerDist" depart="12.23" departLane="best" from="441530152#0" to="1070241563#0" />
    <trip id="veh33" type="passengerDist" depart="14.95" departLane="best" departSpeed="max" color="blue" from="-9985818" to="-10012167#7" />
    <trip id="veh42" type="passengerDist" depart="19.03" departLane="best" color="green" from="601383429" to="-9991977#2" />
    <trip id="veh45" type="passengerDist" depart="20.39" departLane="best" color="green" from="-91242499#2" to="459415869#1" />
    <trip id="veh47" type="passengerDist" depart="21.29" departLane="best" color="green" from="-299398059#5" to="1053555046" />
    <trip id="veh49" type="passengerDist" depart="22.20" departLane="best" color="blue" from="9985593#3" to="9954270#1" />
    <trip id="veh53" type="passengerDist" depart="24.01" departLane="best" color="green" from="-91242601#2" to="1068147606" />
    <trip id="veh55" type="passengerDist" depart="24.92" departLane="best" color="green" from="9954414#1" to="10011537#4" />
    <trip id="veh60" type="passengerDist" depart="27.18" departLane="best" color="green" from="904973557#6" to="1029978833#0" />
    <trip id="veh65" type="passengerDist" depart="29.45" departLane="best" color="green" from="10013373#5" to="-1356365477" />
    <trip id="veh82" type="passengerDist" depart="37.15" departLane="best" departSpeed="max" color="green" from="-9989326#3" to="569025212" />
    <trip id="veh83" type="passengerDist" depart="37.60" departLane="best" departSpeed="max" color="green" from="-9983185" to="-9962081#0" />
    <trip id="veh107" type="passengerDist" depart="48.48" departLane="best" departSpeed="max" color="green" from="-9963600#6" to="560973213" />
    <trip id="veh116" type="passengerDist" depart="52.55" departLane="best" from="45607963#1" to="441530225#1" />
    <trip id="veh122" type="passengerDist" depart="55.27" departLane="best" color="green" from="10014035" to="10010013" />
    <trip id="veh125" type="passengerDist" depart="56.63" departLane="best" color="green" from="-459415868#2" to="-9988914#1" />
    <trip id="veh127" type="passengerDist" depart="57.54" departLane="best" color="green" from="9957284#1" to="9963600#6" />
    <trip id="veh129" type="passengerDist" depart="58.44" departLane="best" from="915074907#3" to="601383426#2" />
    <trip id="veh141" type="passengerDist" depart="63.88" departLane="best" color="green" from="1070241563#0" to="10011536#1" />
    <trip id="veh150" type="passengerDist" depart="67.96" departLane="best" color="green" from="9964794#2" to="-9987504#5" />
    <trip id="veh154" type="passengerDist" depart="69.77" departLane="best" color="green" from="9949105#3" to="9991432#2" />
    <trip id="veh157" type="passengerDist" depart="71.13" departLane="best" color="green" from="1031979074#0" to="9976857#0" />
    <trip id="veh161" type="passengerDist" depart="72.94" departLane="best" color="green" from="1070241563#0" to="1029978833#0" />
    <trip id="veh164" type="passengerDist" depart="74.30" departLane="best" from="1029978833#0" to="9955793#6" />
    <trip id="veh171" type="passengerDist" depart="77.47" departLane="best" color="green" from="-91242477#1" to="1068147604" />
    <trip id="veh179" type="passengerDist" depart="81.10" departLane="best" color="green" from="1042857539#0" to="-459411782#1" />
    <trip id="veh181" type="passengerDist" depart="82.00" departLane="best" color="green" from="10013877#1" to="9949105#3" />
    <trip id="veh185" type="passengerDist" depart="83.82" departLane="best" color="green" from="-9950456#0" to="1067080859#1" />
    <trip id="veh204" type="passengerDist" depart="92.42" departLane="best" from="45607963#1" to="-10003764#2" />
    <trip id="veh206" type="passengerDist" depart="93.33" departLane="best" color="green" from="-91242381#1" to="599937559#0" />
    <trip id="veh207" type="passengerDist" depart="93.78" departLane="best" departSpeed="max" color="blue" from="-9969954#2" to="9984654#2" />
    <trip id="veh211" type="passengerDist" depart="95.59" departLane="best" from="419048319" to="9983615#2" />
    <trip id="veh214" type="passengerDist" depart="96.95" departLane="best" color="green" from="91242527#0" to="27452590#1" />
    <trip id="veh218" type="passengerDist" depart="98.77" departLane="best" color="green" from="90990506#3" to="1267229117" />
    <trip id="veh224" type="passengerDist" depart="101.48" departLane="best" color="green" from="573159160" to="-299398059#3" />
    <trip id="veh225" type="passengerDist" depart="101.94" departLane="best" color="green" from="1059780402" to="-9985347#3" />
    <trip id="veh234" type="passengerDist" depart="106.01" departLane="best" color="green" from="-9983643#0" to="-9991977#2" />
    <trip id="veh237" type="passengerDist" depart="107.37" departLane="best" color="green" from="1053555046" to="-9972002#0" />
    <trip id="veh8089" type="passengerDist" depart="108.27" departLane="best" color="magenta" from="1056569714#2" to="-10013877#3" /><trip id="veh239" type="passengerDist" depart="108.28" departLane="best" departSpeed="max" color="green" from="419211400#0" to="-10011537#6" />
    <trip id="veh242" type="passengerDist" depart="109.64" departLane="best" color="blue" from="-9954083#4" to="468077399" />
    <trip id="veh243" type="passengerDist" depart="110.09" departLane="best" color="green" from="-1156328150#2" to="1053555042#4" />
    <trip id="veh245" type="passengerDist" depart="111.00" departLane="best" color="green" from="904973557#4" to="1053555042#4" />
    <trip id="veh248" type="passengerDist" depart="112.36" departLane="best" color="green" from="-10010035#2" to="1029978833#0" />
    <trip id="veh251" type="passengerDist" depart="113.72" departLane="best" color="green" from="441530225#0" to="91184537#3" />
    <trip id="veh252" type="passengerDist" depart="114.17" departLane="best" departSpeed="max" color="green" from="9980260" to="-9983615#0" />
    <trip id="veh254" type="passengerDist" depart="115.08" departLane="best" color="green" from="-9949673#1" to="569025214" />
    <trip id="veh255" type="passengerDist" depart="115.53" departLane="best" from="1029978833#0" to="-9991432#2" />
    <trip id="veh264" type="passengerDist" depart="119.61" departLane="best" color="green" from="-904973558#1" to="91242608#0" />
    <trip id="veh267" type="passengerDist" depart="120.97" departLane="best" color="blue" from="-91184619#3" to="9985593#1" />
    <trip id="veh270" type="passengerDist" depart="122.32" departLane="best" color="green" from="622704793#0" to="9987504#2" />
    <trip id="veh271" type="passengerDist" depart="122.78" departLane="best" color="blue" from="10003784" to="91362498#1" />
    <trip id="veh276" type="passengerDist" depart="125.04" departLane="best" color="green" from="9958537#1" to="10006168#1" />
    <trip id="veh295" type="passengerDist" depart="133.65" departLane="best" color="green" from="-9973037#2" to="-9953512" />
    <trip id="veh297" type="passengerDist" depart="134.56" departLane="best" color="green" from="-9972023#1" to="-9991004#0" />
    <trip id="veh8263" type="passengerDist" depart="135.77" departLane="best" color="magenta" from="E13.20" to="-91184587#1" /><trip id="veh305" type="passengerDist" depart="138.18" departLane="best" color="green" from="569221946#2" to="-9955793#5" />
    <trip id="veh306" type="passengerDist" depart="138.63" departLane="best" color="green" from="9950456#1" to="1113090714#0" />
    <trip id="veh8092" type="passengerDist" depart="139.96" departLane="best" color="magenta" from="-9970158#2" to="1056569715#1" /><trip id="veh309" type="passengerDist" depart="139.99" departLane="best" color="green" from="-9972002#0" to="-1144939509#1" />
    <trip id="veh312" type="passengerDist" depart="141.35" departLane="best" color="blue" from="-1290771604#1" to="-9966098#2" />
    <trip id="veh313" type="passengerDist" depart="141.81" departLane="best" color="green" from="207053003#0" to="1029978833#0" />
    <trip id="veh320" type="passengerDist" depart="144.98" departLane="best" departSpeed="max" color="green" from="419211400#0" to="1070241563#0" />
    <trip id="veh7964" type="passengerDist" depart="146.09" departLane="best" color="magenta" from="-9987955#2" to="-10013353#1" /><trip id="veh326" type="passengerDist" depart="147.70" departLane="best" color="green" from="-9987504#0" to="602908699" />
    <trip id="veh8035" type="passengerDist" depart="149.03" departLane="best" color="magenta" from="-9983607#0" to="-10008313#2" /><trip id="veh336" type="passengerDist" depart="152.23" departLane="best" color="blue" from="10010180#2" to="-9955566#1" />
    <trip id="veh340" type="passengerDist" depart="154.04" departLane="best" color="green" from="-10013877#5" to="1068147600" />
    <trip id="veh341" type="passengerDist" depart="154.49" departLane="best" color="green" from="560973213" to="10008598#1" />
    <trip id="veh8253" type="passengerDist" depart="158.50" departLane="best" color="magenta" from="9993627#4" to="-468077402" /><trip id="veh8180" type="passengerDist" depart="158.89" departLane="best" color="magenta" from="-9950456#1" to="9955566#4" /><trip id="veh356" type="passengerDist" depart="161.29" departLane="best" color="green" from="1068147604" to="1032517133#0" />
    <trip id="veh8178" type="passengerDist" depart="162.70" departLane="best" color="magenta" from="666036914#3" to="9948448" /><trip id="veh360" type="passengerDist" depart="163.10" departLane="best" color="green" from="1267229117" to="572299727" />
    <trip id="veh366" type="passengerDist" depart="165.82" departLane="best" color="blue" from="-91362528#0" to="9990726" />
    <trip id="veh369" type="passengerDist" depart="167.18" departLane="best" color="green" from="9995211#0" to="9972023#4" />
    <trip id="veh370" type="passengerDist" depart="167.63" departLane="best" color="green" from="1070241563#0" to="-9951364#1" />
    <trip id="veh374" type="passengerDist" depart="169.44" departLane="best" color="green" from="9991004#2" to="10006168#0" />
    <trip id="veh382" type="passengerDist" depart="173.07" departLane="best" color="blue" from="1077664018" to="-9966096#1" />
    <trip id="veh7992" type="passengerDist" depart="175.22" departLane="best" color="magenta" from="-10003764#5" to="-9955862#1" /><trip id="veh389" type="passengerDist" depart="176.24" departLane="best" color="green" from="825955851" to="602908696#0" />
    <trip id="veh394" type="passengerDist" depart="178.50" departLane="best" color="green" from="419047628#0" to="9959249#8" />
    <trip id="veh8045" type="passengerDist" depart="178.85" departLane="best" color="magenta" from="-9985595" to="10012770" /><trip id="veh408" type="passengerDist" depart="184.85" departLane="best" color="green" from="860802651#1" to="1068147604" />
    <trip id="veh411" type="passengerDist" depart="186.21" departLane="best" color="green" from="90990530#0" to="9970156#0" />
    <trip id="veh414" type="passengerDist" depart="187.56" departLane="best" departSpeed="max" color="green" from="-9959249#8" to="1356363911#2" />
    <trip id="veh417" type="passengerDist" depart="188.92" departLane="best" color="green" from="-9991004#0" to="9972023#4" />
    <trip id="veh421" type="passengerDist" depart="190.74" departLane="best" color="green" from="-9964210#7" to="1070241563#0" />
    <trip id="veh429" type="passengerDist" depart="194.36" departLane="best" departSpeed="max" color="green" from="9989907" to="1067080859#1" />
    <trip id="veh430" type="passengerDist" depart="194.81" departLane="best" color="green" from="10006168#0" to="419047628#0" />
    <trip id="veh439" type="passengerDist" depart="198.89" departLane="best" color="green" from="441530150#0" to="1031979074#0" />
    <trip id="veh442" type="passengerDist" depart="200.25" departLane="best" color="green" from="10011648#0" to="90990707#1" />
    <trip id="veh443" type="passengerDist" depart="200.70" departLane="best" color="blue" from="-9969954#1" to="-9961391" />
    <trip id="veh449" type="passengerDist" depart="203.42" departLane="best" color="green" from="9983699#1" to="-9964090#1" />
    <trip id="veh450" type="passengerDist" depart="203.87" departLane="best" color="blue" from="1078999252#0" to="9954083#8" />
    <trip id="veh8168" type="passengerDist" depart="204.73" departLane="best" color="magenta" from="-9988290#1" to="9941599" /><trip id="veh452" type="passengerDist" depart="204.78" departLane="best" color="blue" from="1078999252#0" to="91362467#1" />
    <trip id="veh8254" type="passengerDist" depart="214.79" departLane="best" color="magenta" from="1053555044" to="9993627#4" /><trip id="veh8161" type="passengerDist" depart="215.36" departLane="best" color="magenta" from="91362528#2" to="9949269" /><trip id="veh8015" type="passengerDist" depart="215.41" departLane="best" color="magenta" from="-9969954#0" to="9964210#6" /><trip id="veh476" type="passengerDist" depart="215.65" departLane="best" color="blue" from="-9972770#5" to="-9954083#4" />
    <trip id="veh481" type="passengerDist" depart="217.92" departLane="best" color="green" from="-9949673#0" to="419047627#0" />
    <trip id="veh482" type="passengerDist" depart="218.37" departLane="best" departSpeed="max" color="green" from="-441530200" to="91242458#0" />
    <trip id="veh489" type="passengerDist" depart="221.54" departLane="best" departSpeed="max" color="green" from="-9989326#3" to="622704793#0" />
    <trip id="veh512" type="passengerDist" depart="231.96" departLane="best" color="green" from="1059780402" to="-91184587#1" />
    <trip id="veh516" type="passengerDist" depart="233.78" departLane="best" color="green" from="91242527#0" to="-90990707#1" />
    <trip id="veh526" type="passengerDist" depart="238.31" departLane="best" color="green" from="-91242477#0" to="590446536#0" />
    <trip id="veh8033" type="passengerDist" depart="238.79" departLane="best" color="magenta" from="-9982993#1" to="-1068147596#1" /><trip id="veh529" type="passengerDist" depart="239.67" departLane="best" from="934223143" to="9991004#0" />
    <trip id="veh536" type="passengerDist" depart="242.84" departLane="best" color="green" from="9951364#2" to="419047628#0" />
    <trip id="veh539" type="passengerDist" depart="244.20" departLane="best" color="green" from="831546610#0" to="-9990432" />
    <trip id="veh543" type="passengerDist" depart="246.01" departLane="best" color="green" from="-560945689#1" to="-1159717242#1" />
    <trip id="veh550" type="passengerDist" depart="249.18" departLane="best" color="green" from="49858078#2" to="-1029997531" />
    <trip id="veh553" type="passengerDist" depart="250.54" departLane="best" color="green" from="-9981623#4" to="-9963588#0" />
    <trip id="veh8091" type="passengerDist" depart="259.44" departLane="best" color="magenta" from="1056569715#1" to="-10006196#0" /><trip id="veh574" type="passengerDist" depart="260.05" departLane="best" color="green" from="1068147606" to="915074907#0" />
    <trip id="veh8105" type="passengerDist" depart="260.55" departLane="best" color="magenta" from="419742323" to="10004890#4" /><trip id="veh578" type="passengerDist" depart="261.87" departLane="best" from="45607963#1" to="-9973979#3" />
    <trip id="veh579" type="passengerDist" depart="262.32" departLane="best" departSpeed="max" color="green" from="91175826#0" to="1156328150#0" />
    <trip id="veh584" type="passengerDist" depart="264.58" departLane="best" departSpeed="max" color="green" from="-441530200" to="1070241563#0" />
    <trip id="veh597" type="passengerDist" depart="270.47" departLane="best" color="green" from="-91184537#3" to="9969154#3" />
    <trip id="veh605" type="passengerDist" depart="274.10" departLane="best" color="green" from="560973213" to="10013562" />
    <trip id="veh619" type="passengerDist" depart="280.44" departLane="best" color="green" from="-9970743" to="-9989907" />
    <trip id="veh621" type="passengerDist" depart="281.35" departLane="best" color="green" from="-9985347#2" to="-9963588#2" />
    <trip id="veh625" type="passengerDist" depart="283.16" departLane="best" color="green" from="-10013373#1" to="9983885" />
    <trip id="veh626" type="passengerDist" depart="283.61" departLane="best" color="green" from="90990506#3" to="-9959249#7" />
    <trip id="veh631" type="passengerDist" depart="285.88" departLane="best" color="green" from="1059780403" to="10003465#0" />
    <trip id="veh645" type="passengerDist" depart="292.22" departLane="best" from="934271895" to="10013877#4" />
    <trip id="veh658" type="passengerDist" depart="298.11" departLane="best" color="green" from="1068147593" to="-10003764#1" />
    <trip id="veh660" type="passengerDist" depart="299.02" departLane="best" from="915074907#4-AddedOnRampEdge" to="90990604#2" />
    <trip id="veh666" type="passengerDist" depart="301.73" departLane="best" color="green" from="-9991004#5" to="-9964794#0" />
    <trip id="veh8044" type="passengerDist" depart="301.89" departLane="best" color="magenta" from="9984654#0" to="-9983817#1" /><trip id="veh668" type="passengerDist" depart="302.64" departLane="best" color="green" from="-9990881#2" to="1065420133#0" />
    <trip id="veh670" type="passengerDist" depart="303.55" departLane="best" color="green" from="9987955#0" to="-441530115" />
    <trip id="veh681" type="passengerDist" depart="308.53" departLane="best" color="green" from="-299398059#3" to="91242652#0" />
    <trip id="veh686" type="passengerDist" depart="310.80" departLane="best" color="green" from="599937504" to="10009997#1" />
    <trip id="veh692" type="passengerDist" depart="313.51" departLane="best" color="green" from="9964090#1" to="568139964" />
    <trip id="veh8189" type="passengerDist" depart="314.50" departLane="best" color="magenta" from="9962281#00" to="9988290#0" /><trip id="veh708" type="passengerDist" depart="320.76" departLane="best" color="blue" from="91184619#1" to="-10012744#0" />
    <trip id="veh712" type="passengerDist" depart="322.58" departLane="best" from="27452590#2" to="1032517133#0" />
    <trip id="veh713" type="passengerDist" depart="323.03" departLane="best" color="green" from="1052668219#0" to="1059780403" />
    <trip id="veh721" type="passengerDist" depart="326.65" departLane="best" color="green" from="9964794#1" to="1074165413" />
    <trip id="veh725" type="passengerDist" depart="328.47" departLane="best" color="blue" from="91362463#2" to="9966098#1" />
    <trip id="veh731" type="passengerDist" depart="331.18" departLane="best" color="green" from="-10011656" to="358372600" />
    <trip id="veh734" type="passengerDist" depart="332.54" departLane="best" color="green" from="-563019285#3" to="1031979074#0" />
    <trip id="veh739" type="passengerDist" depart="334.81" departLane="best" color="green" from="1068147593" to="573160086#0" />
    <trip id="veh741" type="passengerDist" depart="335.71" departLane="best" color="green" from="91184587#2" to="49858078#2" />
    <trip id="veh743" type="passengerDist" depart="336.62" departLane="best" color="green" from="568139964" to="9971904#1" />
    <trip id="veh745" type="passengerDist" depart="337.53" departLane="best" color="green" from="-9963588#4" to="-9971904#3" />
    <trip id="veh746" type="passengerDist" depart="337.98" departLane="best" color="green" from="560973213" to="666036914#1" />
    <trip id="veh750" type="passengerDist" depart="339.79" departLane="best" departSpeed="max" color="blue" from="10012744#0" to="1366621789" />
    <trip id="veh751" type="passengerDist" depart="340.24" departLane="best" color="blue" from="1078999252#0" to="-9972168#5" />
    <trip id="veh769" type="passengerDist" depart="348.40" departLane="best" departSpeed="max" color="green" from="9988115" to="-9959249#6" />
    <trip id="veh786" type="passengerDist" depart="356.10" departLane="best" color="green" from="573158983" to="9940977" />
    <trip id="veh789" type="passengerDist" depart="357.46" departLane="best" color="blue" from="24267632#2" to="-9982993#0" />
    <trip id="veh794" type="passengerDist" depart="359.73" departLane="best" departSpeed="max" color="green" from="9988115" to="573158983" />
    <trip id="veh801" type="passengerDist" depart="362.90" departLane="best" from="1029978833#0" to="441530114" />
    <trip id="veh808" type="passengerDist" depart="366.07" departLane="best" color="green" from="9991004#0" to="368617283-AddedOnRampEdge" />
    <trip id="veh816" type="passengerDist" depart="369.69" departLane="best" from="45607963#1" to="-9966015#3" />
    <trip id="veh818" type="passengerDist" depart="370.60" departLane="best" color="green" from="9978624#8" to="-569025213" />
    <trip id="veh821" type="passengerDist" depart="371.96" departLane="best" color="green" from="568139964" to="91242652#0" />
    <trip id="veh823" type="passengerDist" depart="372.86" departLane="best" color="blue" from="-9955566#2" to="-9985593#1" />
    <trip id="veh8274" type="passengerDist" depart="375.70" departLane="best" color="magenta" from="9963600#6" to="E17" /><trip id="veh832" type="passengerDist" depart="376.94" departLane="best" color="blue" from="-9984655#1" to="9990726" />
    <trip id="veh833" type="passengerDist" depart="377.40" departLane="best" color="blue" from="10012167#0" to="10014582#1" />
    <trip id="veh838" type="passengerDist" depart="379.66" departLane="best" color="green" from="1059780403" to="1053555042#4" />
    <trip id="veh839" type="passengerDist" depart="380.11" departLane="best" color="green" from="9991004#2" to="91242527#0" />
    <trip id="veh8011" type="passengerDist" depart="380.75" departLane="best" color="magenta" from="-9968489#1" to="-10005379#1" /><trip id="veh846" type="passengerDist" depart="383.28" departLane="best" color="green" from="569025214" to="-9963588#0" />
    <trip id="veh848" type="passengerDist" depart="384.19" departLane="best" color="green" from="-9991432#1" to="569221945" />
    <trip id="veh8093" type="passengerDist" depart="386.67" departLane="best" color="magenta" from="1064041048#0" to="-666036914#2" /><trip id="veh854" type="passengerDist" depart="386.91" departLane="best" color="green" from="1053586553#0" to="9978624#8" />
    <trip id="veh856" type="passengerDist" depart="387.82" departLane="best" color="blue" from="-9976526#0" to="9987204#0" />
    <trip id="veh858" type="passengerDist" depart="388.72" departLane="best" color="green" from="9968925#0" to="-666036914#1" />
    <trip id="veh870" type="passengerDist" depart="394.16" departLane="best" color="green" from="1267229119#0" to="1156328150#0" />
    <trip id="veh873" type="passengerDist" depart="395.52" departLane="best" departSpeed="max" color="green" from="-91242628#3" to="-9971309#1" />
    <trip id="veh877" type="passengerDist" depart="397.33" departLane="best" from="419048319" to="-9973910#1" />
    <trip id="veh879" type="passengerDist" depart="398.24" departLane="best" color="green" from="-563019285#7" to="569025214" />
    <trip id="veh885" type="passengerDist" depart="400.95" departLane="best" color="green" from="1057114063" to="-24263173#8" />
    <trip id="veh894" type="passengerDist" depart="405.03" departLane="best" color="green" from="1059780402" to="90990604#2" />
    <trip id="veh900" type="passengerDist" depart="407.75" departLane="best" color="green" from="-267750150#3" to="27452590#1" />
    <trip id="veh915" type="passengerDist" depart="414.55" departLane="best" color="green" from="1053586553#0" to="91242527#0" />
    <trip id="veh917" type="passengerDist" depart="415.45" departLane="best" color="green" from="441530149#0" to="1067080859#1" />
    <trip id="veh918" type="passengerDist" depart="415.90" departLane="best" color="green" from="9995692#0" to="1053555046" />
    <trip id="veh919" type="passengerDist" depart="416.36" departLane="best" color="green" from="9951364#0" to="9971088#0" />
    <trip id="veh7978" type="passengerDist" depart="416.97" departLane="best" color="magenta" from="9972770#3" to="-558982620" /><trip id="veh8165" type="passengerDist" depart="425.13" departLane="best" color="magenta" from="9940602" to="599937559#0" /><trip id="veh8081" type="passengerDist" depart="429.00" departLane="best" color="magenta" from="1046485214" to="-9954083#0" /><trip id="veh8187" type="passengerDist" depart="429.82" departLane="best" color="magenta" from="9961391" to="-765143436" /><trip id="veh968" type="passengerDist" depart="438.56" departLane="best" color="green" from="9983641" to="-9951364#0" />
    <trip id="veh983" type="passengerDist" depart="445.35" departLane="best" color="green" from="-9963588#1" to="1034798358#0" />
    <trip id="veh991" type="passengerDist" depart="448.98" departLane="best" color="blue" from="1077664018" to="9972753" />
    <trip id="veh1000" type="passengerDist" depart="453.06" departLane="best" color="green" from="49858078#2" to="441530152#1-AddedOnRampEdge" />
    <trip id="veh1002" type="passengerDist" depart="453.96" departLane="best" color="green" from="-10003764#4" to="299398059#5" />
    <trip id="veh1003" type="passengerDist" depart="454.41" departLane="best" color="green" from="-10008000" to="1032517133#0" />
    <trip id="veh1012" type="passengerDist" depart="458.49" departLane="best" color="green" from="602908696#2" to="419047627#0" />
    <trip id="veh1016" type="passengerDist" depart="460.30" departLane="best" from="419048319" to="-90990707#2" />
    <trip id="veh1035" type="passengerDist" depart="468.91" departLane="best" color="green" from="-9955793#2" to="9995211#1" />
    <trip id="veh8191" type="passengerDist" depart="469.07" departLane="best" color="magenta" from="9963465#1" to="9969954#2" /><trip id="veh8115" type="passengerDist" depart="471.62" departLane="best" color="magenta" from="558982621" to="-666036914#2" /><trip id="veh1042" type="passengerDist" depart="472.08" departLane="best" color="green" from="10005379#0" to="9995744#1" />
    <trip id="veh1043" type="passengerDist" depart="472.54" departLane="best" color="green" from="9975641" to="1068147600" />
    <trip id="veh1051" type="passengerDist" depart="476.16" departLane="best" color="green" from="10003764#5" to="-9962081#1" />
    <trip id="veh8239" type="passengerDist" depart="480.52" departLane="best" color="magenta" from="9984654#3" to="9966098#2" /><trip id="veh1062" type="passengerDist" depart="481.14" departLane="best" color="green" from="-299398059#4" to="1068147604" />
    <trip id="veh1067" type="passengerDist" depart="483.41" departLane="best" color="green" from="-91242381#3" to="1029978833#0" />
    <trip id="veh1074" type="passengerDist" depart="486.58" departLane="best" color="green" from="-9976868" to="1032517133#0" />
    <trip id="veh1078" type="passengerDist" depart="488.39" departLane="best" color="green" from="-9991432#1" to="1067080859#1" />
    <trip id="veh1082" type="passengerDist" depart="490.21" departLane="best" color="green" from="563019285#5" to="1053589889#0" />
    <trip id="veh8286" type="passengerDist" depart="500.17" departLane="best" color="magenta" from="90990506#3" to="E4.221" /><trip id="veh1113" type="passengerDist" depart="504.25" departLane="best" color="green" from="1068147604" to="-9985347#3" />
    <trip id="veh1118" type="passengerDist" depart="506.52" departLane="best" from="934271895" to="560945689#1" />
    <trip id="veh1119" type="passengerDist" depart="506.97" departLane="best" color="green" from="1059780402" to="-9971904#1" />
    <trip id="veh8051" type="passengerDist" depart="509.41" departLane="best" color="magenta" from="-9995211#1" to="-10008206#1" /><trip id="veh1130" type="passengerDist" depart="511.95" departLane="best" color="green" from="-299398059#0" to="-91242601#2" />
    <trip id="veh8233" type="passengerDist" depart="514.49" departLane="best" color="magenta" from="9983617#12" to="-9972753" /><trip id="veh1137" type="passengerDist" depart="515.12" departLane="best" from="934223143" to="441530152#2" />
    <trip id="veh1139" type="passengerDist" depart="516.03" departLane="best" color="green" from="10012064" to="441530151" />
    <trip id="veh1148" type="passengerDist" depart="520.11" departLane="best" color="blue" from="1077664018" to="-9963703#5" />
    <trip id="veh1170" type="passengerDist" depart="530.07" departLane="best" color="green" from="9995692#5" to="91242652#0" />
    <trip id="veh1173" type="passengerDist" depart="531.43" departLane="best" color="blue" from="-9966098#2" to="-9963701" />
    <trip id="veh1174" type="passengerDist" depart="531.89" departLane="best" color="green" from="-9979448" to="-9985347#3" />
    <trip id="veh8130" type="passengerDist" depart="542.53" departLane="best" color="magenta" from="-9990103" to="558982637" /><trip id="veh1202" type="passengerDist" depart="544.57" departLane="best" color="green" from="-1144939509#1" to="-91242499#1" />
    <trip id="veh1209" type="passengerDist" depart="547.74" departLane="best" from="45607963#1" to="10008598#1" />